   64
20.52 0 0 0 20.52 0 0 0 20.52
   Si  -0.102600E+02 -0.102600E+02 -0.102600E+02
   Si  -0.769499E+01 -0.769501E+01 -0.769498E+01
   Si  -0.513000E+01 -0.513002E+01 -0.102600E+02
   Si  -0.256500E+01 -0.256499E+01 -0.769500E+01
   Si  -0.102600E+02 -0.513003E+01 -0.513000E+01
   Si  -0.769500E+01 -0.256499E+01 -0.256500E+01
   Si  -0.513000E+01 -0.102600E+02 -0.513000E+01
   Si  -0.256501E+01 -0.769501E+01 -0.256501E+01
   Si  -0.102600E+02 -0.102600E+02 -0.320502E-05
   Si  -0.769500E+01 -0.769501E+01  0.256502E+01
   Si  -0.513000E+01 -0.513002E+01 -0.495796E-05
   Si  -0.256500E+01 -0.256499E+01  0.256500E+01
   Si  -0.102600E+02 -0.513002E+01  0.513000E+01
   Si  -0.769500E+01 -0.256499E+01  0.769499E+01
   Si  -0.513000E+01 -0.102600E+02  0.513000E+01
   Si  -0.256501E+01 -0.769501E+01  0.769499E+01
   Si  -0.102600E+02  0.255376E-04 -0.102600E+02
   Si  -0.769500E+01  0.256499E+01 -0.769499E+01
   Si  -0.513000E+01  0.512998E+01 -0.102600E+02
   Si  -0.256500E+01  0.769501E+01 -0.769500E+01
   Si  -0.102600E+02  0.512998E+01 -0.513000E+01
   Si  -0.769500E+01  0.769502E+01 -0.256500E+01
   Si  -0.513000E+01  0.178890E-04 -0.513000E+01
   Si  -0.256501E+01  0.256499E+01 -0.256501E+01
   Si  -0.102600E+02  0.246617E-04 -0.141569E-05
   Si  -0.769500E+01  0.256498E+01  0.256501E+01
   Si  -0.513000E+01  0.512997E+01 -0.737286E-06
   Si  -0.256500E+01  0.769501E+01  0.256500E+01
   Si  -0.102600E+02  0.512998E+01  0.513000E+01
   Si  -0.769499E+01  0.769501E+01  0.769500E+01
   Si  -0.513000E+01  0.198169E-04  0.513000E+01
   Si  -0.256501E+01  0.256498E+01  0.769499E+01
   Si   0.451106E-06 -0.102600E+02 -0.102600E+02
   Si   0.256501E+01 -0.769501E+01 -0.769498E+01
   Si   0.512999E+01 -0.513001E+01 -0.102600E+02
   Si   0.769499E+01 -0.256499E+01 -0.769499E+01
   Si   0.296591E-05 -0.513002E+01 -0.512999E+01
   Si   0.256500E+01 -0.256499E+01 -0.256501E+01
   Si   0.513000E+01 -0.102600E+02 -0.513000E+01
   Si   0.769500E+01 -0.769501E+01 -0.256501E+01
   Si   0.686801E-05 -0.102600E+02  0.434786E-05
   Si   0.256500E+01 -0.769502E+01  0.256501E+01
   Si   0.513000E+01 -0.513002E+01 -0.392665E-05
   Si   0.769500E+01 -0.256499E+01  0.256501E+01
   Si  -0.699352E-07 -0.513002E+01  0.513001E+01
   Si   0.256500E+01 -0.256499E+01  0.769499E+01
   Si   0.513000E+01 -0.102600E+02  0.513000E+01
   Si   0.769500E+01 -0.769502E+01  0.769499E+01
   Si   0.361451E-05  0.188965E-04 -0.102600E+02
   Si   0.256501E+01  0.256499E+01 -0.769499E+01
   Si   0.513000E+01  0.512998E+01 -0.102600E+02
   Si   0.769500E+01  0.769501E+01 -0.769499E+01
   Si   0.280863E-06  0.512998E+01 -0.513000E+01
   Si   0.256500E+01  0.769501E+01 -0.256501E+01
   Si   0.513000E+01  0.165597E-04 -0.513000E+01
   Si   0.769499E+01  0.256499E+01 -0.256501E+01
   Si   0.456768E-05  0.243660E-04  0.158715E-05
   Si   0.256500E+01  0.256499E+01  0.256501E+01
   Si   0.513000E+01  0.512998E+01  0.114836E-05
   Si   0.769500E+01  0.769501E+01  0.256501E+01
   Si   0.229773E-05  0.512999E+01  0.513000E+01
   Si   0.256501E+01  0.769501E+01  0.769499E+01
   Si   0.513000E+01  0.198482E-04  0.513000E+01
   Si   0.769499E+01  0.256498E+01  0.769499E+01
